%Mem=512GB
%NProcShared=128
%Chk=MAA1-DMA1-2.chk
#n B3LYP/6-311++G(d,p) Opt freq EmpiricalDispersion=GD3BJ IOp(6/33=2)

MAA1-DMA1 geo opt

0 1
C         19.54909        5.79076        9.68438
C         19.67254        5.44026       11.13313
C         20.04264        4.22313       11.56487
C         19.41545        6.47894       12.15844
O         19.42390        6.31470       13.36477
O         19.23138        7.68823       11.60490
H         19.79252        4.93917        9.03958
H         20.23396        6.60388        9.42129
H         18.52633        6.10174        9.44840
H         20.26771        3.41968       10.87204
H         20.13721        4.00061       12.62507
H         19.32150        8.30736       12.36810
C         19.47227       14.67450       15.89999
C         18.22515       14.01949       15.39373
C         17.05069       14.66659       15.30461
C         18.27125       12.59273       14.95977
O         17.32759       11.99333       14.46867
O         19.50544       12.08404       15.19300
C         19.71772       10.70687       14.83105
C         20.79755       10.64777       13.74045
N         21.08320        9.28346       13.25351
C         21.94270        9.35130       12.06283
C         21.76388        8.48392       14.28383
H         19.30253       15.72423       16.16296
H         20.25693       14.65103       15.13649
H         19.83904       14.16666       16.79805
H         16.95091       15.70552       15.60114
H         16.15462       14.17473       14.93330
H         18.80254       10.21290       14.48590
H         20.04808       10.19621       15.74030
H         21.71120       11.14019       14.10131
H         20.44307       11.26392       12.90316
H         22.89803        9.84810       12.26689
H         21.43499        9.88957       11.25508
H         22.15190        8.34468       11.68251
H         22.00556        7.48586       13.90074
H         21.12072        8.32764       15.15505
H         22.69668        8.95272       14.61946

--Link1--
%NoSave
%chk=MAA1-DMA1-2.chk
#P B3LYP/6-311++G(d,p) Geom=Allcheck SCF=Tight EmpiricalDispersion=GD3BJ Pop=CHELPG SP IOp(6/33=2)

Calculating ESP
