%Mem=192GB
%NProcShared=48
%Chk=MAA-2.chk
#n B3LYP/6-311++G(d,p) Opt freq EmpiricalDispersion=GD3BJ IOp(6/33=2)

MAA geo opt

0 1
H           1.22670         1.49570         1.79710
O           2.19760         1.57240         1.89590
C           2.68180         0.80230         0.90640
O           1.93540         0.21120         0.14670
C           4.16350         0.76340         0.85630
C           4.82330         0.04460        -0.06700
H           5.90760         0.02280        -0.09530
H           4.30530        -0.54200        -0.82010
C           4.86860         1.57530         1.89910
H           4.60130         2.63340         1.81040
H           4.60120         1.22960         2.90320
H           5.95760         1.50110         1.80380

--Link1--
%NoSave
%chk=MAA-2.chk
#P B3LYP/6-311++G(d,p) Geom=Allcheck SCF=Tight EmpiricalDispersion=GD3BJ Pop=CHELPG SP IOp(6/33=2)

Calculating ESP
