%Mem=192GB
%NProcShared=48
%Chk=MAA1-DMA1-5.chk
#n B3LYP/6-311++G(d,p) Opt freq EmpiricalDispersion=GD3BJ IOp(6/33=2)

MAA1-DMA1 geo opt

0 1
C          13.88700        12.01400        12.39200
C          12.56600        12.77100        12.41900
C          12.50800        14.12500        12.25600
C          11.32900        12.06100        12.65100
O          10.20400        12.57000        12.35400
O          11.42900        10.82100        13.16300
H          13.70000        10.94900        12.25000
H          14.39500        12.30500        13.31100
H          14.46800        12.41500        11.56100
H          13.39200        14.71900        12.07700
H          11.59100        14.69600        12.27700
H          10.53100        10.55400        13.28900
C           8.75600         9.52700        10.40100
C           7.68400         9.77900        11.45700
C           6.42700         9.62400        11.16800
C           7.95800        10.30200        12.78800
O           8.88800         9.90700        13.52000
O           7.06800        11.27000        13.11700
C           7.04000        11.89000        14.34500
C           8.19300        12.78900        14.72100
N           7.98400        13.51500        15.98900
C           8.83000        13.07100        17.03900
C           7.91300        14.99900        15.81400
H           9.73800         9.90600        10.68500
H           8.38100         9.67000         9.38700
H           9.04000         8.47500        10.38600
H           6.03500         9.36500        10.19500
H           5.67100         9.67100        11.93700
H           7.04600        11.05500        15.04600
H           6.15700        12.50900        14.50100
H           8.25300        13.48200        13.88300
H           9.06600        12.16400        14.53000
H           8.75600        11.99700        17.20900
H           8.60200        13.50400        18.01300
H           9.87100        13.30000        16.81200
H           7.72100        15.35900        16.82500
H           6.99900        15.24300        15.27300
H           8.87500        15.32000        15.41500

--Link1--
%NoSave
%chk=MAA1-DMA1-5.chk
#P B3LYP/6-311++G(d,p) Geom=Allcheck SCF=Tight EmpiricalDispersion=GD3BJ Pop=CHELPG SP IOp(6/33=2)

Calculating ESP
