%Mem=192GB
%NProcShared=48
%Chk=MAA1-DMA1-4.chk
#n B3LYP/6-311++G(d,p) Opt freq EmpiricalDispersion=GD3BJ IOp(6/33=2)

MAA1-DMA1 geo opt

0 1
C          12.98600        10.98200        12.85800
C          12.58000        12.44000        12.75500
C          12.66400        13.35000        13.77000
C          11.99300        12.91400        11.44700
O          11.65800        12.18700        10.53200
O          11.89200        14.24400        11.24100
H          12.21300        10.34300        13.28500
H          13.88400        10.97400        13.47500
H          13.16900        10.73800        11.81200
H          13.01700        13.03900        14.74200
H          12.33700        14.37800        13.72600
H          11.60700        14.41100        10.35600
C          11.40000        17.65800         6.29700
C          10.53300        16.69500         7.01500
C           9.24000        16.97600         7.35600
C          11.18200        15.48000         7.55200
O          10.74700        14.98000         8.61000
O          12.17900        15.21500         6.88000
C          13.10300        14.18900         7.26500
C          13.32800        13.20100         6.08100
N          14.49400        12.33700         6.19600
C          14.14300        11.33600         7.22400
C          14.85400        11.58400         4.99400
H          12.38100        17.60900         6.77000
H          10.95600        18.64200         6.44700
H          11.42200        17.47400         5.22300
H           8.73100        17.88000         7.05800
H           8.61700        16.32300         7.95100
H          12.82700        13.69500         8.19700
H          13.89300        14.92300         7.42100
H          13.34000        13.72100         5.12400
H          12.41900        12.61600         5.94200
H          14.95200        10.60900         7.15100
H          13.19000        10.84200         7.03400
H          14.08600        11.77600         8.22000
H          14.92400        12.28200         4.16000
H          14.19400        10.77200         4.68600
H          15.84500        11.16500         5.16900

--Link1--
%NoSave
%chk=MAA1-DMA1-4.chk
#P B3LYP/6-311++G(d,p) Geom=Allcheck SCF=Tight EmpiricalDispersion=GD3BJ Pop=CHELPG SP IOp(6/33=2)

Calculating ESP

