%Mem=512GB
%NProcShared=128
%Chk=MAA1-DMA1-1.chk
#n B3LYP/6-311++G(d,p) Opt freq EmpiricalDispersion=GD3BJ IOp(6/33=2)

MAA1-DMA1 geo opt

0 1
C          11.44400         4.68300         4.98700
C          11.68800         4.58600         3.49700
C          12.25500         3.49200         2.93300
C          11.22900         5.61400         2.58500
O          11.72600         5.83300         1.47400
O          10.16100         6.28700         2.99200
H          12.14000         4.01600         5.49500
H          10.46600         4.31800         5.30300
H          11.62400         5.70400         5.32300
H          12.59200         2.62700         3.48400
H          12.46500         3.39200         1.87900
H          10.24000         7.12800         2.56900
C          12.66300        12.34600         2.01800
C          11.71400        11.54900         2.97600
C          10.56700        11.97400         3.49200
C          12.14900        10.21500         3.27400
O          11.44400         9.17900         3.27700
O          13.45200        10.18500         3.65200
C          14.19500         8.98000         3.84400
C          14.57300         8.33800         2.45000
N          15.80500         7.52800         2.36500
C          15.78800         6.34400         3.21500
C          15.97800         7.07900         1.05000
H          13.71800        12.43600         2.27700
H          12.42100        13.40300         1.90700
H          12.69000        11.82700         1.05900
H          10.17400        12.97700         3.40800
H          10.00000        11.33200         4.14900
H          13.78400         8.20300         4.48800
H          15.17900         9.25700         4.22100
H          14.57500         9.11900         1.69000
H          13.70000         7.73500         2.20100
H          15.80800         6.64600         4.26200
H          16.60600         5.62400         3.17200
H          14.91400         5.72100         3.02000
H          16.95200         6.61900         0.88500
H          16.04700         7.94500         0.39100
H          15.20700         6.41800         0.65400

--Link1--
%NoSave
%chk=MAA1-DMA1-1.chk
#P B3LYP/6-311++G(d,p) Geom=Allcheck SCF=Tight EmpiricalDispersion=GD3BJ Pop=CHELPG SP IOp(6/33=2)

Calculating ESP
