%Mem=192GB
%NProcShared=48
%Chk=MAA1-DMA1-3.chk
#n B3LYP/6-311++G(d,p) Opt freq EmpiricalDispersion=GD3BJ IOp(6/33=2)

MAA1-DMA1 geo opt

0 1
C          12.78000        13.08500        13.73400
C          12.82300        12.33100        12.40600
C          13.99700        12.00700        11.86300
C          11.55100        12.23200        11.71400
O          11.48900        12.40500        10.46600
O          10.40100        12.16400        12.45900
H          13.78500        13.20800        14.13700
H          12.14900        12.42800        14.33200
H          12.35600        14.08900        13.72700
H          14.99000        12.08700        12.28100
H          14.06600        11.55700        10.88400
H           9.61300        12.40700        11.99700
C           5.74800        15.74200        10.06200
C           7.16400        15.56100        10.70300
C           7.91600        16.54700        11.27400
C           7.75200        14.19700        10.80600
O           8.02200        13.64200        11.85800
O           7.74600        13.64200         9.56400
C           8.21000        12.35500         9.44000
C           7.01800        11.40000         9.75500
N           7.41700        10.00500         9.52300
C           8.32000         9.52200        10.59900
C           6.23200         9.14900         9.63600
H           5.04700        16.41300        10.55800
H           5.23600        14.78500         9.95900
H           5.93200        16.08700         9.04400
H           7.64800        17.59100        11.20300
H           8.81800        16.43100        11.85500
H           9.03700        12.17800        10.12700
H           8.67800        12.19300         8.46900
H           6.26600        11.66400         9.01100
H           6.53600        11.54000        10.72300
H           8.59800         8.48700        10.39700
H           7.88000         9.62100        11.59200
H           9.21200        10.14800        10.57000
H           5.52000         9.48800         8.88400
H           5.73600         9.12200        10.60700
H           6.47700         8.12800         9.34200

--Link1--
%NoSave
%chk=MAA1-DMA1-3.chk
#P B3LYP/6-311++G(d,p) Geom=Allcheck SCF=Tight EmpiricalDispersion=GD3BJ Pop=CHELPG SP IOp(6/33=2)

Calculating ESP

