%Mem=192GB
%NProcShared=48
%Chk=MAA1-VI1-2.chk
#n B3LYP/6-311++G(d,p) Opt freq EmpiricalDispersion=GD3BJ IOp(6/33=2)

MAA1-VI1 geo opt

0 1
C          13.34100        11.89000        11.83100
C          12.47600        12.83100        12.51500
C          12.38500        14.16100        12.11900
C          11.60000        12.31100        13.50200
O          10.75500        12.95800        14.11200
O          11.69700        10.97400        13.85000
H          12.77100        11.05800        11.41800
H          14.10200        11.43500        12.46500
H          13.91800        12.41800        11.07200
H          13.01800        14.58900        11.35600
H          11.57900        14.79200        12.46400
H          12.35600        10.58300        13.29600
C          12.70600        14.52000        17.77300
C          13.60400        13.51400        17.75400
N          14.26500        13.13000        16.66400
C          14.95000        13.93100        15.83200
C          15.22100        13.11800        14.75000
N          14.72200        11.83700        14.98700
C          13.97600        11.96200        16.03400
H          12.10200        14.72600        18.64500
H          12.46500        15.16100        16.93900
H          13.70200        12.90700        18.64200
H          15.18100        14.96600        16.04100
H          15.80500        13.30900        13.86200
H          13.38300        11.12900        16.38100

--Link1--
%NoSave
%chk=MAA1-VI1-2.chk
#P B3LYP/6-311++G(d,p) Geom=Allcheck SCF=Tight EmpiricalDispersion=GD3BJ Pop=CHELPG SP IOp(6/33=2)

Calculating ESP
