%Mem=192GB
%NProcShared=48
%Chk=MAA1-VI1-3.chk
#n B3LYP/6-311++G(d,p) Opt freq EmpiricalDispersion=GD3BJ IOp(6/33=2)

MAA1-VI1 geo opt

0 1
C          11.43700        12.50200        13.43100
C          12.42400        12.34300        12.24800
C          12.38000        11.28200        11.43600
C          13.51100        13.28900        11.95500
O          13.92400        13.53500        10.84600
O          14.13200        13.92100        12.99400
H          11.73200        11.99800        14.35100
H          10.46100        12.13500        13.11100
H          11.45700        13.57500        13.62500
H          11.64000        10.50000        11.53300
H          13.04400        11.18500        10.59000
H          13.85800        13.73500        13.87900
C          15.61700        15.42000        19.48600
C          14.42800        15.20000        18.97300
N          14.25600        14.35900        17.87400
C          14.98100        13.20100        17.66800
C          14.47100        12.63900        16.51100
N          13.47100        13.43300        15.96800
C          13.39600        14.43400        16.86200
H          15.67300        16.21000        20.22000
H          16.57300        15.03400        19.16500
H          13.56600        15.62000        19.47200
H          15.70800        12.84000        18.38100
H          14.72500        11.72400        15.99600
H          12.72000        15.27600        16.82200

--Link1--
%NoSave
%chk=MAA1-VI1-3.chk
#P B3LYP/6-311++G(d,p) Geom=Allcheck SCF=Tight EmpiricalDispersion=GD3BJ Pop=CHELPG SP IOp(6/33=2)

Calculating ESP
