%Mem=192GB
%NProcShared=48
%Chk=MAA1-VI1-4.chk
#n B3LYP/6-311++G(d,p) Opt freq EmpiricalDispersion=GD3BJ IOp(6/33=2)

MAA1-VI1 geo opt

0 1
C          12.00100        11.29500        12.13200
C          12.75900        12.60200        12.41900
C          13.96600        12.81100        11.80200
C          12.28900        13.53400        13.44100
O          12.97300        14.38400        13.91800
O          10.99500        13.68600        13.70100
H          11.25700        10.96700        12.85800
H          12.86400        10.63500        12.04400
H          11.41000        11.28100        11.21600
H          14.38000        12.16900        11.03900
H          14.51200        13.63000        12.24600
H          10.59400        13.00400        13.18400
C           7.62400        16.58400         9.83700
C           8.06500        16.09600        11.03800
N           8.77500        15.01900        10.93500
C           9.96800        14.84500        10.21900
C          10.24900        13.51900        10.20600
N           9.35000        12.88100        11.05500
C           8.42200        13.80900        11.31600
H           6.98300        17.45000         9.91100
H           8.04500        16.30300         8.88300
H           7.72600        16.37300        12.02500
H          10.54200        15.67500         9.83400
H          11.03300        12.95100         9.72800
H           7.54100        13.63900        11.91600

--Link1--
%NoSave
%chk=MAA1-VI1-4.chk
#P B3LYP/6-311++G(d,p) Geom=Allcheck SCF=Tight EmpiricalDispersion=GD3BJ Pop=CHELPG SP IOp(6/33=2)

Calculating ESP
