%Mem=192GB
%NProcShared=48
%Chk=MAA1-VI1-5.chk
#n B3LYP/6-311++G(d,p) Opt freq EmpiricalDispersion=GD3BJ IOp(6/33=2)

MAA1-VI1 geo opt

0 1
C          11.47300        12.94800        11.79800
C          12.68900        12.27300        12.39300
C          13.25600        11.24600        11.73700
C          13.22200        12.60700        13.75100
O          14.07700        11.91100        14.24700
O          12.78600        13.69400        14.39000
H          11.75300        13.81800        11.20400
H          10.82200        13.37200        12.56200
H          10.90000        12.35500        11.08500
H          12.83300        10.96600        10.78300
H          14.10800        10.73100        12.15700
H          12.08200        14.08200        13.89300
C           8.73100        19.63600        12.82300
C           9.73200        18.88900        12.36300
N          10.35100        17.94700        13.14700
C          10.93300        17.93600        14.43300
C          11.48500        16.70600        14.63000
N          11.18200        15.91400        13.52600
C          10.54400        16.72300        12.66700
H           8.36900        20.47300        12.24400
H           8.26600        19.41200        13.77100
H          10.10000        18.97300        11.35100
H          10.89500        18.81000        15.06600
H          11.89000        16.32200        15.55500
H          10.09400        16.35800        11.75500

--Link1--
%NoSave
%chk=MAA1-VI1-5.chk
#P B3LYP/6-311++G(d,p) Geom=Allcheck SCF=Tight EmpiricalDispersion=GD3BJ Pop=CHELPG SP IOp(6/33=2)

Calculating ESP
