%Mem=512GB
%NProcShared=128
%Chk=MAA1-AS1-1.chk
#n B3LYP/6-311++G(d,p) Opt freq EmpiricalDispersion=GD3BJ IOp(6/33=2)

MAA1-AS1 geo opt

0 1
C          21.24600         5.00100         2.31600
C          19.87200         5.60100         2.24900
C          19.47000         6.59000         3.15300
C          19.06400         5.20100         1.10500
O          17.82800         4.99200         1.18900
O          19.67700         4.93500        -0.11200
H          21.18500         3.95300         2.02100
H          21.73500         5.11400         3.28400
H          21.94100         5.47400         1.62200
H          20.15500         6.86400         3.94100
H          18.51500         7.08500         3.05500
H          20.60800         5.09400        -0.14500
C          24.65200         3.84000         2.63900
C          24.92700         4.68800         1.63800
C          24.26000         4.63300         0.37000
C          24.66100         5.58000        -0.62700
C          24.16100         5.52700        -1.96500
C          23.20600         4.56700        -2.35300
C          22.73900         3.66100        -1.32700
C          23.29000         3.71200         0.00400
N          22.75500         4.48700        -3.60000
H          25.17100         3.81800         3.58600
H          23.95200         3.02100         2.70900
H          25.63900         5.46700         1.86800
H          25.53800         6.18600        -0.45500
H          24.65800         6.16100        -2.68500
H          22.09000         2.85700        -1.64100
H          22.95800         3.03400         0.77600
H          22.99800         5.22100        -4.24900
H          21.84400         4.14400        -3.87200

--Link1--
%NoSave
%chk=MAA1-AS1-1.chk
#P B3LYP/6-311++G(d,p) Geom=Allcheck SCF=Tight EmpiricalDispersion=GD3BJ Pop=CHELPG SP IOp(6/33=2)

Calculating ESP
