%Mem=192GB
%NProcShared=48
%Chk=MAA1-AS1-4.chk
#n B3LYP/6-311++G(d,p) Opt freq EmpiricalDispersion=GD3BJ IOp(6/33=2)

MAA1-AS1 geo opt

0 1
C          12.39000        11.30200        13.49600
C          12.58400        12.35700        12.42700
C          12.78800        12.16700        11.13200
C          12.73000        13.77200        12.82400
O          13.51500        14.29400        13.59800
O          11.78000        14.59200        12.24800
H          12.38900        11.68200        14.51700
H          13.36500        10.81700        13.55700
H          11.61900        10.61800        13.14300
H          12.72700        11.23100        10.59800
H          13.02800        13.08000        10.60700
H          11.08500        14.08800        11.85300
C          21.09500        12.10100        16.84100
C          20.17600        11.90200        15.87600
C          18.95300        12.67300        15.88700
C          17.83000        12.21800        15.07900
C          16.67300        12.98100        14.88500
C          16.53100        14.18400        15.57000
C          17.55300        14.68000        16.38800
C          18.77400        13.90400        16.53200
N          15.41800        14.93100        15.46900
H          22.04200        11.58300        16.84900
H          20.82300        12.71500        17.68800
H          20.34100        11.19100        15.08000
H          17.95600        11.37000        14.42200
H          15.92700        12.46000        14.30400
H          17.49300        15.69400        16.75300
H          19.48300        14.36600        17.20200
H          14.68400        14.64700        14.83600
H          15.03700        15.38200        16.28900

--Link1--
%NoSave
%chk=MAA1-AS1-4.chk
#P B3LYP/6-311++G(d,p) Geom=Allcheck SCF=Tight EmpiricalDispersion=GD3BJ Pop=CHELPG SP IOp(6/33=2)

Calculating ESP
--Link1--
%NoSave
%chk=MAA1-AS1-4.chk
#P B3LYP/6-311++G(d,p) Geom=Allcheck SCF=Tight EmpiricalDispersion=GD3BJ Pop=CHELPG SP IOp(6/33=2)

Calculating ESP
