%Mem=192GB
%NProcShared=48
%Chk=MAA1-AS1-5.chk
#n B3LYP/6-311++G(d,p) Opt freq EmpiricalDispersion=GD3BJ IOp(6/33=2)

MAA1-AS1 geo opt

0 1
C          13.91900        14.84000        12.14600
C          12.47600        14.75600        12.41100
C          11.76200        15.75700        12.84700
C          11.86600        13.43000        12.14600
O          12.14600        12.65300        11.22600
O          11.04700        12.94200        13.11300
H          14.11100        15.73400        11.55400
H          14.28400        14.01400        11.53600
H          14.45100        14.99600        13.08400
H          12.29800        16.67800        13.02300
H          10.69900        15.72000        13.03100
H          10.94000        13.48000        13.88300
C           6.90500        18.66300        12.77700
C           7.19800        17.52800        13.46600
C           7.25700        16.15800        12.94200
C           7.89000        15.25300        13.82200
C           8.09600        13.97100        13.43000
C           7.55100        13.48700        12.19700
C           6.93000        14.36400        11.28600
C           6.84000        15.73900        11.66800
N           7.67100        12.18000        11.95000
H           6.70800        19.59900        13.28000
H           6.67000        18.63900        11.72300
H           7.40400        17.61700        14.52300
H           8.21300        15.54900        14.80900
H           8.43500        13.31200        14.21600
H           6.55900        14.06900        10.31600
H           6.30100        16.44900        11.05800
H           7.40100        11.81300        11.04800
H           8.50800        11.72600        12.28600

--Link1--
%NoSave
%chk=MAA1-AS1-5.chk
#P B3LYP/6-311++G(d,p) Geom=Allcheck SCF=Tight EmpiricalDispersion=GD3BJ Pop=CHELPG SP IOp(6/33=2)

Calculating ESP
