%Mem=192GB
%NProcShared=48
%Chk=MAA1-AS1-2.chk
#n B3LYP/6-311++G(d,p) Opt freq EmpiricalDispersion=GD3BJ IOp(6/33=2)

MAA1-AS1 geo opt

0 1
C          13.54900        12.88900        13.09700
C          12.16100        12.63400        12.54700
C          11.17400        13.50500        12.75100
C          12.04900        11.51500        11.58700
O          11.18300        11.34900        10.79500
O          13.00300        10.58000        11.63600
H          14.28900        12.93200        12.29800
H          13.91700        12.09800        13.75000
H          13.55800        13.87300        13.56600
H          11.29600        14.33100        13.43600
H          10.24600        13.44000        12.20200
H          13.57600        10.85300        12.33600
C           5.25600        17.18600        10.34800
C           6.53600        16.85000        10.22500
C           6.85300        15.48700        10.51700
C           6.45600        14.95400        11.77700
C           6.78900        13.65800        12.17500
C           7.59100        12.84300        11.31100
C           8.19700        13.41900        10.15500
C           7.80100        14.72400         9.70700
N           7.96600        11.57200        11.59700
H           4.91300        18.20800        10.28700
H           4.44900        16.50600        10.57800
H           7.29100        17.62100        10.16700
H           5.79100        15.46000        12.46100
H           6.41500        13.22800        13.09300
H           8.78400        12.83600         9.46100
H           8.33500        15.15400         8.87200
H           8.83800        11.16800        11.29000
H           7.39300        11.12600        12.29900

--Link1--
%NoSave
%chk=MAA1-AS1-2.chk
#P B3LYP/6-311++G(d,p) Geom=Allcheck SCF=Tight EmpiricalDispersion=GD3BJ Pop=CHELPG SP IOp(6/33=2)

Calculating ESP
--Link1--
%NoSave
%chk=MAA1-AS1-2.chk
#P B3LYP/6-311++G(d,p) Geom=Allcheck SCF=Tight EmpiricalDispersion=GD3BJ Pop=CHELPG SP IOp(6/33=2)

Calculating ESP
