%Mem=192GB
%NProcShared=48
%Chk=MAA1-AS1-3.chk
#n B3LYP/6-311++G(d,p) Opt freq EmpiricalDispersion=GD3BJ IOp(6/33=2)

MAA1-AS1 geo opt

0 1
C          13.74200        12.60200        12.81100
C          12.29900        12.22900        12.64000
C          11.67500        11.67200        13.66300
C          11.59500        12.60600        11.43500
O          10.45600        12.21800        11.14700
O          12.07900        13.58400        10.65200
H          13.80700        13.37400        13.57800
H          14.17000        13.06700        11.92300
H          14.36600        11.75000        13.08200
H          12.28400        11.46100        14.52900
H          10.61900        11.44400        13.69200
H          12.90700        13.99400        10.84900
C           9.31800        18.01600         5.54400
C           9.42900        18.27700         6.83600
C           8.87500        17.26300         7.72300
C           9.69000        16.85100         8.78100
C           9.32300        15.82200         9.67300
C           8.16000        15.15200         9.37900
C           7.32800        15.47500         8.33100
C           7.62300        16.61100         7.56800
N           7.78500        14.02000        10.01400
H           9.76200        18.72500         4.86000
H           8.73200        17.19200         5.16500
H          10.07200        19.07200         7.18300
H          10.67900        17.26800         8.90200
H          10.00700        15.52900        10.45600
H           6.37400        14.99600         8.16300
H           7.01500        16.90800         6.72600
H           8.54700        13.47200        10.38700
H           7.25700        13.45800         9.36200

--Link1--
%NoSave
%chk=MAA1-AS1-3.chk
#P B3LYP/6-311++G(d,p) Geom=Allcheck SCF=Tight EmpiricalDispersion=GD3BJ Pop=CHELPG SP IOp(6/33=2)

Calculating ESP
--Link1--
%NoSave
%chk=MAA1-AS1-3.chk
#P B3LYP/6-311++G(d,p) Geom=Allcheck SCF=Tight EmpiricalDispersion=GD3BJ Pop=CHELPG SP IOp(6/33=2)

Calculating ESP
