%Mem=192GB
%NProcShared=48
%Chk=DMAEMA-1.chk
#n B3LYP/6-311++G(d,p) Opt freq EmpiricalDispersion=GD3BJ IOp(6/33=2)

DMAEMA geo opt

0 1
H           4.60540        -1.77450         1.02920
C           3.94410        -0.91600         1.10780
H           4.41870         0.05430         1.22500
C           2.60650        -1.02670         1.06220
C           1.91440        -2.33820         0.89570
O           2.51440        -3.39560         0.79000
O           0.55910        -2.20540         0.88810
C          -0.11730        -3.35780         1.41760
H           0.13800        -4.23630         0.81380
H           0.22390        -3.50580         2.44740
C          -1.63820        -3.13510         1.39020
H          -2.13940        -3.98180         1.87800
H          -1.85130        -2.26090         2.02090
N          -2.18630        -2.90040         0.03860
C          -1.93740        -4.02570        -0.86540
H          -2.35450        -4.96310        -0.48100
H          -2.37360        -3.83170        -1.85170
H          -0.86670        -4.16540        -1.04280
C          -3.62710        -2.64190         0.11010
H          -4.18000        -3.49650         0.51740
H          -3.83560        -1.76450         0.73150
H          -4.02680        -2.42020        -0.88660
C           1.73020         0.18830         1.17070
H           1.89420         0.69380         2.12870
H           1.95440         0.89250         0.36200
H           0.66360        -0.04550         1.10730

--Link1--
%NoSave
%chk=DMAEMA-1.chk
#P B3LYP/6-311++G(d,p) Geom=Allcheck SCF=Tight EmpiricalDispersion=GD3BJ Pop=CHELPG SP IOp(6/33=2)

Calculating ESP
