%Mem=192GB
%NProcShared=48
%Chk=DMAEMA-5.chk
#n B3LYP/6-311++G(d,p) Opt freq EmpiricalDispersion=GD3BJ IOp(6/33=2)

DMAEMA geo opt

0 1
H          -0.65720         0.28490        -2.03710
C          -0.73300         0.58260        -0.99500
H          -1.03320         1.60900        -0.80310
C          -0.47570        -0.26000         0.01860
C          -0.06740        -1.67850        -0.20020
O          -0.27330        -2.27390        -1.24540
O           0.55910        -2.20540         0.88810
C          -0.11730        -3.35780         1.41760
H           0.13800        -4.23630         0.81380
H           0.22390        -3.50580         2.44740
C          -1.63820        -3.13510         1.39020
H          -2.13940        -3.98180         1.87800
H          -1.85130        -2.26090         2.02090
N          -2.18630        -2.90040         0.03860
C          -1.93740        -4.02570        -0.86540
H          -2.35450        -4.96310        -0.48100
H          -2.37360        -3.83170        -1.85170
H          -0.86670        -4.16540        -1.04280
C          -3.62710        -2.64190         0.11010
H          -4.18000        -3.49650         0.51740
H          -3.83560        -1.76450         0.73150
H          -4.02680        -2.42020        -0.88660
C          -0.59720         0.19350         1.44530
H           0.09250         1.02130         1.64350
H          -1.61810         0.53350         1.65070
H          -0.36980        -0.59630         2.16700

--Link1--
%NoSave
%chk=DMAEMA-5.chk
#P B3LYP/6-311++G(d,p) Geom=Allcheck SCF=Tight EmpiricalDispersion=GD3BJ Pop=CHELPG SP IOp(6/33=2)

Calculating ESP
