%Mem=192GB
%NProcShared=48
%Chk=DMAEMA-6.chk
#n B3LYP/6-311++G(d,p) Opt freq EmpiricalDispersion=GD3BJ IOp(6/33=2)

DMAEMA geo opt

0 1
H           1.70200        -1.84750        -1.29400
C           1.23640        -0.87600        -1.43470
H           1.60960        -0.27260        -2.25760
C           0.24760        -0.42660        -0.64490
C          -0.29870        -1.22510         0.49110
O          -1.39430        -1.01200         0.98480
O           0.55910        -2.20540         0.88810
C          -0.11730        -3.35780         1.41760
H           0.13800        -4.23630         0.81380
H           0.22390        -3.50580         2.44740
C          -1.63820        -3.13510         1.39020
H          -2.13940        -3.98180         1.87800
H          -1.85130        -2.26090         2.02090
N          -2.18630        -2.90040         0.03860
C          -3.63630        -2.69300         0.05500
H          -3.92500        -1.85270         0.69610
H          -4.00970        -2.50020        -0.95700
H          -4.16360        -3.58980         0.39420
C          -1.53540        -1.74350        -0.58220
H          -1.71110        -0.81950        -0.01890
H          -0.45460        -1.90110        -0.66340
H          -1.90660        -1.59680        -1.60350
C          -0.37020         0.92230        -0.87860
H           0.38510         1.71030        -0.78530
H          -0.80470         0.97300        -1.88290
H          -1.17000         1.15610        -0.17000

--Link1--
%NoSave
%chk=DMAEMA-6.chk
#P B3LYP/6-311++G(d,p) Geom=Allcheck SCF=Tight EmpiricalDispersion=GD3BJ Pop=CHELPG SP IOp(6/33=2)

Calculating ESP
