%Mem=192GB
%NProcShared=48
%Chk=DMAEMA-3.chk
#n B3LYP/6-311++G(d,p) Opt freq EmpiricalDispersion=GD3BJ IOp(6/33=2)

DMAEMA geo opt

0 1
H           1.45210        -2.99740        -1.30440
C           2.44080        -2.59740        -1.09770
H           3.14260        -2.58280        -1.92700
C           2.79640        -2.13730         0.11290
C           1.86230        -2.13270         1.27650
O           2.24470        -2.06160         2.43320
O           0.55910        -2.20540         0.88810
C          -0.11730        -3.35780         1.41760
H           0.13800        -4.23630         0.81380
H           0.22390        -3.50580         2.44740
C          -1.63820        -3.13510         1.39020
H          -1.97660        -3.05820         0.34830
H          -2.10830        -4.04500         1.78840
N          -2.08910        -1.97250         2.18230
C          -1.49930        -0.71690         1.71190
H          -1.72520        -0.52540         0.65700
H          -1.86870         0.12810         2.30380
H          -0.41310        -0.71240         1.84400
C          -3.55040        -1.86760         2.14820
H          -3.92910        -1.70750         1.13180
H          -4.01590        -2.77190         2.55440
H          -3.88980        -1.03400         2.77440
C           4.17390        -1.58870         0.35270
H           4.93060        -2.35690         0.15890
H           4.36470        -0.73670        -0.30880
H           4.32360        -1.23950         1.37850

--Link1--
%NoSave
%chk=DMAEMA-3.chk
#P B3LYP/6-311++G(d,p) Geom=Allcheck SCF=Tight EmpiricalDispersion=GD3BJ Pop=CHELPG SP IOp(6/33=2)

Calculating ESP
