%Mem=192GB
%NProcShared=48
%Chk=DMAEMA-2.chk
#n B3LYP/6-311++G(d,p) Opt freq EmpiricalDispersion=GD3BJ IOp(6/33=2)

DMAEMA geo opt

0 1
H           1.13650        -0.44130        -0.77030
C           2.20140        -0.63780        -0.68250
H           2.84780        -0.14540        -1.40370
C           2.71290        -1.44260         0.26310
C           1.86230        -2.13270         1.27650
O           2.30390        -2.56510         2.32880
O           0.55910        -2.20540         0.88810
C          -0.11730        -3.35780         1.41760
H           0.13800        -4.23630         0.81380
H           0.22390        -3.50580         2.44740
C          -1.63820        -3.13510         1.39020
H          -1.97660        -3.05820         0.34830
H          -2.10830        -4.04500         1.78840
N          -2.08910        -1.97250         2.18230
C          -3.54210        -1.79450         2.13070
H          -4.07870        -2.68230         2.48320
H          -3.84780        -0.93930         2.74390
H          -3.87960        -1.56100         1.11630
C          -1.66400        -2.11010         3.57800
H          -2.10280        -2.99280         4.05790
H          -0.57340        -2.18200         3.64830
H          -1.95610        -1.22590         4.15680
C           4.19300        -1.68280         0.35000
H           4.56130        -2.13940        -0.57520
H           4.72330        -0.73730         0.50740
H           4.47160        -2.34870         1.17190

--Link1--
%NoSave
%chk=DMAEMA-2.chk
#P B3LYP/6-311++G(d,p) Geom=Allcheck SCF=Tight EmpiricalDispersion=GD3BJ Pop=CHELPG SP IOp(6/33=2)

Calculating ESP
