%Mem=192GB
%NProcShared=48
%Chk=DMAEMA-9.chk
#n B3LYP/6-311++G(d,p) Opt freq EmpiricalDispersion=GD3BJ IOp(6/33=2)

DMAEMA geo opt

0 1
H          4.12961       -0.87701       -0.67466
C          3.86842        0.16394       -0.52910
H          4.63299        0.91222       -0.70446
C          2.63638        0.50919       -0.14535
C          1.64890       -0.59986        0.06785
O          1.87142       -1.77902       -0.09212
O          0.45124       -0.12190        0.46769
C         -0.59160       -1.09468        0.68677
H         -0.63133       -1.77184       -0.16722
H         -0.33649       -1.69059        1.56765
C         -1.89709       -0.35305        0.91649
H         -2.62544       -1.07671        1.33373
H         -1.72601        0.40204        1.68831
N         -2.42165        0.31607       -0.27000
C         -2.98767       -0.61289       -1.23964
H         -3.86253       -1.16245       -0.84216
H         -3.30596       -0.06386       -2.12861
H         -2.24266       -1.34495       -1.55578
C         -3.37627        1.36048        0.07727
H         -4.28268        0.97026        0.57831
H         -2.90547        2.08887        0.74145
H         -3.69262        1.88398       -0.82813
C          2.19672        1.93188        0.07678
H          1.87126        2.08782        1.10897
H          3.01498        2.62169       -0.13763
H          1.34591        2.18537       -0.56080

--Link1--
%NoSave
%chk=DMAEMA-9.chk
#P B3LYP/6-311++G(d,p) Geom=Allcheck SCF=Tight EmpiricalDispersion=GD3BJ Pop=CHELPG SP IOp(6/33=2)

Calculating ESP
