%Mem=192GB
%NProcShared=48
%Chk=MAA1-VP1-5.chk
#n B3LYP/6-311++G(d,p) Opt freq EmpiricalDispersion=GD3BJ IOp(6/33=2)

MAA1-VP1 geo opt

0 1
C          26.03100        13.12800        13.03900
C          27.36000        12.64300        12.56400
C          28.41100        12.97800        13.21400
C          27.40600        11.86000        11.34600
O          28.37100        12.08200        10.55300
O          26.65800        10.72300        11.13300
H          25.22900        12.62900        12.49400
H          25.92100        14.18900        12.81400
H          25.80800        12.95800        14.09200
H          28.30100        13.68400        14.02300
H          29.40100        12.69500        12.88600
H          26.10300        10.43100        11.84000
C          21.54900         6.28200        10.45300
C          21.35100         7.31000        11.33200
C          22.49700         7.94700        11.94900
C          23.62100         7.27900        12.42900
C          24.77000         7.97300        12.82500
N          24.82200         9.32000        12.92300
C          23.67100         9.96700        12.63500
C          22.53300         9.31200        12.10100
H          20.74100         5.82600         9.90100
H          22.55700         5.91100        10.33800
H          20.37700         7.70100        11.58900
H          23.72200         6.20700        12.34600
H          25.66800         7.44200        13.10400
H          23.67900        11.03900        12.75800
H          21.68300         9.96900        11.99100

--Link1--
%NoSave
%chk=MAA1-VP1-5.chk
#P B3LYP/6-311++G(d,p) Geom=Allcheck SCF=Tight EmpiricalDispersion=GD3BJ Pop=CHELPG SP IOp(6/33=2)

Calculating ESP
