%Mem=192GB
%NProcShared=48
%Chk=MAA1-VP1-2.chk
#n B3LYP/6-311++G(d,p) Opt freq EmpiricalDispersion=GD3BJ IOp(6/33=2)

MAA1-VP1 geo opt

0 1
C          13.44300         5.03900        12.77300
C          12.57200         3.85500        12.53300
C          12.91100         2.56400        12.69500
C          11.19700         4.08600        11.95100
O          10.50900         3.23900        11.30700
O          10.77700         5.33500        12.00600
H          13.32600         5.88300        12.09300
H          14.47600         4.73600        12.59900
H          13.32200         5.48000        13.76200
H          13.91700         2.38600        13.04300
H          12.20500         1.76200        12.53600
H          11.34400         5.63400        12.70100
C          17.61500         3.15600        19.42600
C          16.28300         3.12900        19.30500
C          15.72800         3.27400        17.98800
C          16.42700         3.28600        16.77200
C          15.76400         3.42100        15.55200
N          14.40600         3.67700        15.46600
C          13.71000         3.63800        16.62900
C          14.35000         3.47800        17.85200
H          18.05900         3.00700        20.40000
H          18.39600         3.26500        18.68800
H          15.64200         2.95700        20.15700
H          17.50700         3.27700        16.73900
H          16.24900         3.44600        14.58800
H          12.65100         3.83600        16.70800
H          13.73900         3.69200        18.71600

--Link1--
%NoSave
%chk=MAA1-VP1-2.chk
#P B3LYP/6-311++G(d,p) Geom=Allcheck SCF=Tight EmpiricalDispersion=GD3BJ Pop=CHELPG SP IOp(6/33=2)

Calculating ESP
--Link1--
%NoSave
%chk=MAA1-VP1-2.chk
#P B3LYP/6-311++G(d,p) Geom=Allcheck SCF=Tight EmpiricalDispersion=GD3BJ Pop=CHELPG SP IOp(6/33=2)

Calculating ESP
