%Mem=192GB
%NProcShared=48
%Chk=MAA1-VP1-4.chk
#n B3LYP/6-311++G(d,p) Opt freq EmpiricalDispersion=GD3BJ IOp(6/33=2)

MAA1-VP1 geo opt

0 1
C          15.67600        13.05700        11.86200
C          16.71000        12.30500        12.73600
C          16.31500        11.95900        13.97800
C          18.00500        12.03100        12.28200
O          18.79600        11.32100        12.87400
O          18.37900        12.77000        11.16300
H          15.83300        14.12100        11.68000
H          14.76000        13.10300        12.45000
H          15.49300        12.45000        10.97600
H          15.33700        12.07700        14.42100
H          17.09000        11.52000        14.58800
H          17.60700        13.28700        10.99000
C          17.18500         5.87300         7.29000
C          17.82200         6.71200         8.14300
C          17.07500         7.24900         9.27500
C          15.71300         7.18600         9.57700
C          15.17900         7.84300        10.73500
N          15.92400         8.52300        11.62500
C          17.24400         8.63900        11.32100
C          17.79700         8.05100        10.17400
H          17.67000         5.66300         6.34800
H          16.16500         5.56000         7.45900
H          18.83000         7.03700         7.93700
H          15.07900         6.51800         9.01300
H          14.13200         7.74300        10.98100
H          17.90100         9.14200        12.01500
H          18.85400         8.25700        10.09400

--Link1--
%NoSave
%chk=MAA1-VP1-4.chk
#P B3LYP/6-311++G(d,p) Geom=Allcheck SCF=Tight EmpiricalDispersion=GD3BJ Pop=CHELPG SP IOp(6/33=2)

Calculating ESP
--Link1--
%NoSave
%chk=MAA1-VP1-4.chk
#P B3LYP/6-311++G(d,p) Geom=Allcheck SCF=Tight EmpiricalDispersion=GD3BJ Pop=CHELPG SP IOp(6/33=2)

Calculating ESP
