%Mem=192GB
%NProcShared=48
%Chk=4AS-2.chk
#n B3LYP/6-311++G(d,p) Opt freq EmpiricalDispersion=GD3BJ IOp(6/33=2)

4AS geo opt

0 1
H           0.97840        -0.40860        -0.69160
C           2.05960        -0.32090        -0.72340
H           2.47180         0.46830        -1.34290
C           2.82850        -1.17740        -0.03830
H           2.35480        -1.96840         0.53930
C           4.29790        -1.15900        -0.03110
C           5.03870        -0.42120         0.89850
H           4.54080         0.18000         1.65430
C           6.43840        -0.43520         0.86910
H           6.98420         0.18160         1.57730
C           7.12720        -1.22680        -0.05060
N           8.51780        -1.12600        -0.16560
H           8.95140        -1.92830        -0.61080
H           8.98240        -0.86550         0.69830
C           6.39070        -1.93750        -0.99920
H           6.89920        -2.50600        -1.77300
C           4.99040        -1.92620        -0.97440
H           4.44950        -2.50460        -1.72030

--Link1--
%NoSave
%chk=4AS-2.chk
#P B3LYP/6-311++G(d,p) Geom=Allcheck SCF=Tight EmpiricalDispersion=GD3BJ Pop=CHELPG SP IOp(6/33=2)

Calculating ESP
